powerflow/Codes/PF_Formulation/resultados_csv/16/300bus/ramos.csv
caso,script,branch_id,f_bus,t_bus,pf_pu,qf_pu,pt_pu,qt_pu,loss_p_pu,loss_q_pu
300bus.pwf,16,1,206,207,-0.0967432055428169,-0.1065523305644275,0.0980291467404445,0.10819058441893806,0.0012859411976275936,0.0016382538545105518
300bus.pwf,16,2,9021,9023,0.009569098198095507,-0.02156846809055158,-0.009039634557957112,0.02202425266504649,0.0005294636401383945,0.0004557845744949107
300bus.pwf,16,3,1,5,4.070045918356619,1.1218601438871878,-4.054490087498659,-1.028525158739439,0.015555830857959307,0.09333498514774874
300bus.pwf,16,4,37,38,-0.3065294728822204,-0.1929357711712043,0.30755499812231873,0.1907784790721443,0.0010255252400983572,-0.0021572920990600153
300bus.pwf,16,5,70,528,0.2834557927952579,-0.23436952919907808,-0.2809999999999997,0.2195655763653616,0.002455792795258205,-0.014803952833716494
300bus.pwf,16,6,25,26,0.7885313325003418,-0.03602992712357189,-0.7691367592384966,0.03588997931916904,0.019394573261845238,-0.00013994780440285126
300bus.pwf,16,7,41,42,-5.520640267300156,-0.3408086076848278,5.520640267300156,1.1941522193426977,0.0,0.8533436116578699
300bus.pwf,16,8,231,232,5.531393231392738,1.6175855106957115,-5.525269194598179,-3.0090301834412188,0.006124036794559196,-1.3914446727455072
300bus.pwf,16,9,201,204,-0.14851855293719884,0.0498523322821425,0.1513035941260643,-0.0457421505276068,0.002785041188865467,0.004110181754535702
300bus.pwf,16,10,119,1190,1.0039270424199547,0.31310584563575594,-1.0029999999999961,-0.2917838699767211,0.000927042419958557,0.02132197565903482
300bus.pwf,16,11,115,122,1.9267660963346345,1.0257341753690346,-1.9084884476976598,-0.9283507888283571,0.018277648636974675,0.09738338654067746
300bus.pwf,16,12,9006,9007,0.09117700681206313,-0.06065697626544858,-0.09061313096901251,0.06315941626989013,0.0005638758430506208,0.002502440004441553
300bus.pwf,16,13,145,146,-2.0738078514238354,-0.0775174191071647,2.10887452958886,0.22704856039840615,0.03506667816502462,0.14953114129124145
300bus.pwf,16,14,228,231,0.057254850389788545,-0.30760336177011144,-0.05703065464553246,0.31551057321175907,0.0002241957442560838,0.007907211441647632
300bus.pwf,16,15,129,133,1.0093577531325488,0.13125361090741497,-1.007246601068072,-0.14346015203887721,0.0021111520644767623,-0.012206541131462245
300bus.pwf,16,16,189,208,0.0625672568368025,0.041542903290075525,-0.062407823219273496,-0.04108392772446316,0.0001594336175290076,0.00045897556561236286
300bus.pwf,16,17,57,58,-0.646518465449815,0.6236914375625879,0.679196693899147,-0.608434569763423,0.0326782284493321,0.015256867799164908
300bus.pwf,16,18,200,210,-0.2513092543995116,-0.12998986824391393,0.2573986977918582,0.12453053318634813,0.006089443392346627,-0.005459335057565795
300bus.pwf,16,19,15,89,0.44043896290246637,-0.23762631004064086,-0.41796114186480465,0.2559812153028438,0.022477821037661716,0.01835490526220293
300bus.pwf,16,20,197,198,-0.9566284654851539,-0.4561679763294826,0.9665006277393827,0.5048570606563032,0.009872162254228822,0.04868908432682062
300bus.pwf,16,21,14,15,2.4283835722613545,-1.2521609136322938,-2.327430045050454,1.4539482148454987,0.10095352721090034,0.20178730121320498
300bus.pwf,16,22,9004,9044,-0.04292762055400997,0.028200919986959866,0.0430113985491006,-0.028137649235974754,8.377799509062811e-5,6.327075098511159e-5
300bus.pwf,16,23,173,176,-0.49402577784790846,0.191363393300619,0.5490605156708187,-0.10566391725605082,0.05503473782291024,0.08569947604456818
300bus.pwf,16,24,224,226,-0.4324369362500109,-3.0776077228081737,0.4452313893071862,2.208729722998405,0.012794453057175303,-0.8688779998097687
300bus.pwf,16,25,135,136,-2.132785502364627,-0.15955087401495932,2.171633422743986,0.005455788682423746,0.038847920379359024,-0.15409508533253558
300bus.pwf,16,26,13,20,0.8978077462981261,-0.20454726405696372,-0.8931578820575389,0.21343530677688444,0.00464986424058722,0.008888042719920719
300bus.pwf,16,27,116,120,-2.804444332981988,-0.40314282876382207,2.821918990153269,1.3186739477591207,0.01747465717128094,0.9155311189952986
300bus.pwf,16,28,104,322,0.024137962763625495,-0.0637268428049142,-0.024000000000000174,0.046729472503593994,0.00013796276362532112,-0.016997370301320203
300bus.pwf,16,29,37,90,-0.5909079836413679,-0.03810015611779585,0.6071774665339337,0.06532535708873136,0.0162694828925658,0.027225200970935504
300bus.pwf,16,30,127,128,-0.5334267778244169,-0.21488135525365418,0.5352499049602429,0.1354080667065727,0.001823127135825997,-0.07947328854708147
300bus.pwf,16,31,26,320,0.024719861156090775,-0.1413832733997106,-0.0240000000000002,0.12787845012056778,0.0007198611560905732,-0.013504823279142819
300bus.pwf,16,32,167,169,-1.5018356280769973,-0.36079284290059277,1.5061929180022515,0.3751533723586026,0.004357289925254193,0.014360529458009808
300bus.pwf,16,33,203,211,0.2596793718158722,0.21606264526715022,-0.25868268025644137,-0.2193816841142778,0.000996691559430829,-0.0033190388471275867
300bus.pwf,16,34,123,124,-1.3759352674938832,0.5505302835893828,1.4706340342964173,-0.36795344658388945,0.09469876680253408,0.18257683700549338
300bus.pwf,16,35,24,319,1.166864936368813,-0.3072361205764973,-1.1580000000000006,0.24215311636677184,0.00886493636881247,-0.06508300420972546
300bus.pwf,16,36,99,109,0.3298940120553891,0.01470291273384236,-0.32562653166677524,-0.03136529060723822,0.0042674803886138535,-0.01666237787339586
300bus.pwf,16,37,77,78,-2.6236223310034634,-0.7748564701842056,2.6303998855978707,0.8077469167568849,0.00677755459440732,0.032890446572679366
300bus.pwf,16,38,20,27,0.23810611679778532,-0.027883909023584535,-0.2344856207198444,-0.06749922631045899,0.0036204960779409046,-0.09538313533404352
300bus.pwf,16,39,198,210,0.9606190704469033,0.42387560997148904,-0.942328391922929,-0.3664115220443946,0.018290678523974258,0.057464087927094454
300bus.pwf,16,40,97,102,0.29307921587400376,-0.0396816400053116,-0.2902410573365898,0.03267371853438383,0.0028381585374139817,-0.007007921470927769
300bus.pwf,16,41,37,40,-0.2103460191940792,-0.2161632371753012,0.21229201210052878,0.2146161000251731,0.0019459929064495896,-0.0015471371501281084
300bus.pwf,16,42,220,238,-2.7344230829190583,2.860000190990198,2.760920664881049,-3.189484830202324,0.02649758196199059,-0.3294846392121258
300bus.pwf,16,43,8,14,4.2420725230525385,-0.06971336111167448,-4.0283835722613555,0.674508349586429,0.213688950791183,0.6047949884747545
300bus.pwf,16,44,158,159,-2.375384215597636,0.33530887711369184,2.3941413296511147,-0.32145740178172,0.018757114053478574,0.013851475331971841
300bus.pwf,16,45,217,220,-0.1341599613986007,0.5130546077827961,0.13651789019740607,-1.3570036298972612,0.0023579287988053643,-0.8439490221144651
300bus.pwf,16,46,122,123,0.3086292611030397,-0.04180008238541552,-0.29987116042181006,0.04192852843806824,0.00875810068122962,0.0001284460526527198
300bus.pwf,16,47,228,234,-0.05883839271379307,-0.08463340100120555,0.05900352744850065,-0.8226728195543773,0.00016513473470758377,-0.9073062205555829
300bus.pwf,16,48,7,12,2.5999212876794155,-1.3851009261357792,-2.5916980035786983,1.3853973452467887,0.008223284100717265,0.0002964191110095271
300bus.pwf,16,49,130,151,1.4042283684950314,0.7054780069460738,-1.4004009334510357,-0.6967221420273622,0.0038274350439957416,0.008755864918711609
300bus.pwf,16,50,11,13,1.4939447582085115,-0.05939976731801838,-1.477807746298121,0.10820670207662747,0.01613701191039052,0.04880693475860909
300bus.pwf,16,51,198,203,0.68414068342238,0.3478489625484567,-0.6796793718158713,-0.35473896531664445,0.0044613116065086444,-0.006890002768187742
300bus.pwf,16,52,245,246,0.1948591244559334,0.0427502790125193,-0.19419730681422792,-0.03966460695055366,0.0006618176417054755,0.0030856720619656386
300bus.pwf,16,53,165,166,-5.5232310702268546,0.5741683107166177,5.529999999999994,-0.15787912966856038,0.006768929773139476,0.4162891810480573
300bus.pwf,16,54,235,238,-2.671712734691271,0.6467224462463773,2.6733598029458836,-1.441527659657032,0.0016470682546128046,-0.7948052134106546
300bus.pwf,16,55,119,121,6.758627280671985,5.01847993315622,-6.758627280671985,-1.561223083794566,0.0,3.457256849361654
300bus.pwf,16,56,63,526,1.5090374703180456,-0.03603921981788383,-1.4529999999999992,0.37185787180347885,0.0560374703180464,0.335818651985595
300bus.pwf,16,57,85,86,-1.3043230648462842,0.3038340216390424,1.317337166296385,-0.34341257795809244,0.013014101450100846,-0.03957855631905005
300bus.pwf,16,58,125,126,-3.7640998345028516,0.2281109269935815,3.77304594852589,0.06561981676285276,0.008946114023038465,0.29373074375643426
300bus.pwf,16,59,172,173,0.31445871733067476,0.04494525436064731,-0.3078112188932062,-0.06043468274847505,0.006647498437468591,-0.015489428387827742
300bus.pwf,16,60,173,175,-0.19321641543251358,-0.002729949896941773,0.1961070878392053,-0.02711253065292161,0.002890672406691719,-0.02984248054986338
300bus.pwf,16,61,126,129,0.2729228919221839,-0.46476970173875115,-0.27031980678308487,0.3057374966864597,0.002603085139099015,-0.15903220505229143
300bus.pwf,16,62,157,159,-6.28135311476839,1.7659449106706924,6.31865358032663,-1.3714716376514198,0.03730046555824007,0.3944732730192726
300bus.pwf,16,63,175,179,0.1624399297205945,-0.052721401326704935,-0.16032178116656637,0.00824981722933165,0.002118148554028143,-0.044471584097373285
300bus.pwf,16,64,154,183,-0.45137674575752396,0.09117785551333879,0.47171468175409337,-0.05301966514297163,0.020337935996569412,0.03815819037036716
300bus.pwf,16,65,21,24,-2.2685386141224457,-1.0810100672537852,2.291955063638756,0.9794969156045884,0.023416449516310056,-0.10151315164919683
300bus.pwf,16,66,217,219,-1.1976062524523494,-2.7030579086649102,1.2015777972686772,2.8208006599389184,0.003971544816327777,0.11774275127400813
300bus.pwf,16,67,91,94,-0.16639554333713202,0.31764663601254667,0.1780363313528328,-0.32371640731052914,0.011640788015700787,-0.006069771297982474
300bus.pwf,16,68,191,192,8.297176289003984,3.362611018725293,-8.0558972513655,0.4978535834904281,0.24127903763848302,3.860464602215721
300bus.pwf,16,69,217,218,0.17930023955622074,0.3500146466802505,-0.17930023955622074,-0.34356228682193546,0.0,0.006452359858315049
300bus.pwf,16,70,12,21,4.926023616840558,0.5870017508975918,-4.879570729304465,-0.3620308570236188,0.046452887536093,0.22497089387397295
300bus.pwf,16,71,178,179,0.18380865217157413,-0.29575478318916915,-0.17741594855726225,0.29252904780283284,0.006392703614311879,-0.0032257353863363036
300bus.pwf,16,72,51,52,-0.32739132268920146,-0.05666316729624611,0.3316736448466905,0.02260682478363797,0.004282322157489027,-0.03405634251260814
300bus.pwf,16,73,158,160,-0.9132010037465857,0.45882129359263185,0.9218152427745633,-0.6443776315072118,0.008614239027977533,-0.18555633791457998
300bus.pwf,16,74,33,38,1.4001449699239077,0.17534424884582567,-1.3953772029831166,-0.1659763694741736,0.004767766940791063,0.009367879371652066
300bus.pwf,16,75,199,200,-0.011792214294760406,0.04497407502452758,0.011980774390202509,-0.05405454209712504,0.00018856009544210295,-0.009080467072597465
300bus.pwf,16,76,98,100,-0.04655069470963143,0.048472523229836015,0.046652488509486514,-0.056317351556605375,0.00010179379985508774,-0.00784482832676936
300bus.pwf,16,77,126,157,-3.6857610259017233,1.0011092849353433,3.7639097794098206,-0.528267566621051,0.07814875350809736,0.47284171831429234
300bus.pwf,16,78,53,54,-0.37618915107243467,-0.012942027093380146,0.3795701641738862,-0.014147086109597654,0.0033810131014515576,-0.0270891132029778
300bus.pwf,16,79,72,531,0.1404781135362559,0.017563381212682253,-0.13999999999999996,-0.013958853380751927,0.0004781135362559308,0.0036045278319303264
300bus.pwf,16,80,2,8,4.5302409184594445,0.3481379581467725,-4.422969671156309,0.07381209025761093,0.1072712473031352,0.42195004840438344
300bus.pwf,16,81,48,107,-0.49115041706998136,-0.24340287843116132,0.49807076459905714,0.25281888224155497,0.0069203475290757765,0.009416003810393647
300bus.pwf,16,82,199,210,-0.338207785705239,-0.16738154854146425,0.34358936528584194,0.17568916818817182,0.005381579580602924,0.008307619646707565
300bus.pwf,16,83,15,90,0.5098067032156646,-0.13196668418227983,-0.4853717620291934,0.172847711865021,0.02443494118647116,0.040881027682741156
300bus.pwf,16,84,45,74,2.4963950199364,-0.4223382056986681,-2.445008762103161,0.2806207736543692,0.05138625783323869,-0.14171743204429887
300bus.pwf,16,85,35,76,1.1274151675929545,0.37842223908580835,-1.1195474630021713,-0.3621987323146392,0.00786770459078312,0.016223506771169127
300bus.pwf,16,86,117,118,-9.042794909977726,3.141901383253783,9.052682588545437,-2.979609821110815,0.009887678567711333,0.16229156214296836
300bus.pwf,16,87,39,42,4.999999999999996,1.2989147621687782,-4.985215334352923,-1.5841748963070477,0.01478466564707226,-0.28526013413826945
300bus.pwf,16,88,204,205,0.018118368136780402,-0.17820936672227478,-0.016791543798592753,0.1801707592222021,0.0013268243381876488,0.001961392499927328
300bus.pwf,16,89,60,62,-3.435495490086956,0.3744639739140388,3.53416153376135,-0.20853393405720683,0.09866604367439402,0.16593003985683197
300bus.pwf,16,90,137,181,-1.8504647713512756,-1.9740828518168836,1.8536310615488876,1.9713322256848709,0.003166290197611943,-0.0027506261320127123
300bus.pwf,16,91,140,141,-0.5203764157238354,0.1283337259113982,0.5236722273270195,-0.24300811931546212,0.00329581160318404,-0.11467439340406393
300bus.pwf,16,92,81,194,0.16110210308524336,-0.8127835604351771,-0.1602374859916454,0.20281403818820654,0.0008646170935979747,-0.6099695222469705
300bus.pwf,16,93,143,145,0.4146797572592118,0.9112361585094445,-0.4075444501502148,-0.970843000432618,0.007135307108997013,-0.05960684192317345
300bus.pwf,16,94,55,57,-1.066290689444187,0.12397737982337875,1.1380375068228634,-0.028827835722459616,0.07174681737867639,0.09514954410091914
300bus.pwf,16,95,78,84,-3.38,-1.0742721124848806,3.38,1.4792768661032554,0.0,0.40500475361837474
300bus.pwf,16,96,172,174,-0.30471687167377237,-0.09914685627939511,0.3099814631010135,0.08606795797558763,0.0052645914272411165,-0.013078898303807485
300bus.pwf,16,97,126,127,1.714768030908126,-0.9794057667062315,-1.6920340455246008,0.8897099135880626,0.022733985383525113,-0.08969585311816886
300bus.pwf,16,98,57,63,0.17848095862695487,0.003843587022758603,-0.1738848747662076,-0.06822390469311718,0.00459608386074728,-0.06438031767035857
300bus.pwf,16,99,190,240,-0.3309475774574894,1.331458680703939,0.3309475774574894,-1.288678942526552,0.0,0.04277973817738712
300bus.pwf,16,100,123,125,0.8958064279156928,-0.6071489945084421,-0.8348296256799708,0.6533961446946577,0.060976802235721994,0.04624715018621561
300bus.pwf,16,101,126,158,-3.192502017419903,1.153624480841016,3.288585219344225,-0.7929699934801869,0.09608320192432185,0.36065448736082917
300bus.pwf,16,102,143,149,-0.50532481324625,-0.08230246521658596,0.5080384836923395,-0.060616545655471976,0.0027136704460895,-0.14291901087205794
300bus.pwf,16,103,196,197,-0.7727949169342412,-0.2225070837401657,0.7810680422835552,0.24169288949347534,0.008273125349314014,0.019185805753309637
300bus.pwf,16,104,163,164,-2.2666105160979053,0.215542141209932,2.3064806495175225,-3.33483898652897,0.039870133419617204,-3.119296845319038
300bus.pwf,16,105,134,135,-0.43989779274696844,0.07015397665386296,0.44078550236462694,-0.25651144811457977,0.0008877096176584942,-0.1863574714607168
300bus.pwf,16,106,242,247,0.9826485298908499,0.12100801742460393,-0.9715346375624739,-0.04926387319767417,0.011113892328376007,0.07174414422692976
300bus.pwf,16,107,102,104,0.5124694832198671,-0.37855317000400596,-0.49770656790304457,0.3694471394204942,0.0147629153168225,-0.009106030583511782
300bus.pwf,16,108,99,108,-0.1701415194196591,-0.5528120075006197,0.17071376862266224,0.5516219119845115,0.000572249203003139,-0.0011900955161081583
300bus.pwf,16,109,140,182,1.6398333460649557,-0.20313794283878484,-1.636713747065853,0.09032664258692169,0.003119598999102635,-0.11281130025186314
300bus.pwf,16,110,173,174,-0.6399465878263716,-0.0479910392452815,0.6743276517492188,0.13857811756180963,0.03438106392284723,0.09058707831652812
300bus.pwf,16,111,198,202,0.11676532959991069,0.011265966987724377,-0.1129895666032412,-0.003441494271734416,0.003775762996669485,0.00782447271598996
300bus.pwf,16,112,47,113,0.2325240063285648,-0.12990299097249958,-0.2297106275886705,0.12380773551689163,0.00281337873989429,-0.006095255455607948
300bus.pwf,16,113,134,184,-0.61979547335041,-0.7372395510789265,0.6224986932205928,0.4804748446046762,0.002703219870182849,-0.25676470647425026
300bus.pwf,16,114,77,80,0.010846428300971354,-0.0682269658551611,-0.010816590038413263,0.026329751556915654,2.9838262558090634e-5,-0.041897214298245444
300bus.pwf,16,115,74,562,0.5118651843105448,-0.21343705036632024,-0.5049999999999999,-0.14882320234739196,0.006865184310544947,-0.3622602527137122
300bus.pwf,16,116,220,221,0.45864420178751936,-1.2262029611870855,-0.4575139913396637,0.7327558665165993,0.0011302104478556618,-0.4934470946704862
300bus.pwf,16,117,187,188,4.945187289131038,1.5642325932892995,-4.929417109118649,-1.507019130587063,0.015770180012388835,0.057213462702236484
300bus.pwf,16,118,112,114,-0.03700023681376383,-0.027379602898164497,0.03702980013120059,0.02072835380787858,2.9563317436753778e-5,-0.006651249090285916
300bus.pwf,16,119,37,49,2.7429269553106255,0.9761704992465867,-2.599629999734886,-0.33720315153571767,0.1432969555757393,0.638967347710869
300bus.pwf,16,120,118,1201,-0.6839224989471956,-0.0777663822416379,0.6839224989471956,0.3958024009863872,0.0,0.3180360187447493
300bus.pwf,16,121,146,147,-1.6769363564955584,0.18947404927484882,1.6960136882089558,-0.1391879754086274,0.019077331713397427,0.050286073866221415
300bus.pwf,16,122,9003,9007,-0.06988244608581844,0.027344029137816223,0.07014258568703961,-0.026194100212415777,0.0002601396012211765,0.0011499289254004452
300bus.pwf,16,123,224,225,-2.335963100322224,2.1829926424258765,2.4442691296786347,-1.9418246216458217,0.10830602935641087,0.24116802078005484
300bus.pwf,16,124,122,125,0.589868675801057,-0.1877905824046283,-0.5490705398171738,0.293221487929587,0.040798135983883155,0.10543090552495873
300bus.pwf,16,125,195,219,0.18164142437354522,-0.8261988900526663,-0.18078817649267273,0.24551005302860351,0.0008532478808724875,-0.5806888370240628
300bus.pwf,16,126,133,169,0.9668039202837942,0.5758488200388867,-0.9641740367394226,-0.582936440958798,0.0026298835443716584,-0.0070876209199113305
300bus.pwf,16,127,148,179,0.42669735085605914,0.13578901307271923,-0.4022622702761716,-0.1489606074392475,0.024435080579887525,-0.013171594366528261
300bus.pwf,16,128,242,245,0.6764943400932788,0.21365007919571763,-0.6723165343899415,-0.1702926078110811,0.004177805703337256,0.043357471384636526
300bus.pwf,16,129,90,92,-0.7818057045047395,-0.18700774507255055,0.8007989413930439,0.2627936121866793,0.018993236888304343,0.07578586711412874
300bus.pwf,16,130,190,229,-0.24225062226089228,0.4833882811961381,0.24225062226089228,-0.46826341818587025,0.0,0.01512486301026783
300bus.pwf,16,131,218,220,-0.28819989821706155,0.24225507765050572,0.28926099093410845,-0.6755788535998777,0.0010610927170469076,-0.433323775949372
300bus.pwf,16,132,214,215,2.521802408977892,-0.5607131580639994,-2.5103178848535834,0.6658247898274773,0.01148452412430867,0.10511163176347793
300bus.pwf,16,133,38,41,-0.6959553185248859,0.07589466328522992,0.6997593284035959,-0.07904061664013601,0.0038040098787099907,-0.0031459533549060836
300bus.pwf,16,134,41,51,1.2461459316204024,0.20715160904448743,-1.198323378790489,-0.10541579404973694,0.047822552829913434,0.10173581499475048
300bus.pwf,16,135,162,164,4.612896836063094,-0.1315392727022413,-4.556311457973877,0.6866048296945664,0.05658537808921782,0.5550655569923251
300bus.pwf,16,136,70,71,-0.8434557927952573,0.04824032301489689,0.8653886383255582,-0.04605006963350933,0.02193284553030095,0.0021902533813875635
300bus.pwf,16,137,9003,9044,0.04329900724886765,-0.053233845769988505,-0.0430113985490978,0.053481459006765306,0.00028760869976984793,0.00024761323677680025
300bus.pwf,16,138,33,40,0.6769694360499748,-0.19235833560127685,-0.6741490581139672,0.1850549131598525,0.0028203779360076453,-0.007303422441424345
300bus.pwf,16,139,120,1201,0.6839224989471956,0.056069465766706905,-0.6839224989471956,-0.21282342164708679,0.0,-0.15675395588037988
300bus.pwf,16,140,105,110,0.44379741988892785,-0.10923914620419412,-0.41624230598584,0.1258732345091071,0.027555113903087847,0.016634088304912975
300bus.pwf,16,141,162,165,-5.462896836063093,-0.11042471546136456,5.523231070226862,-0.5754929388399773,0.060334234163768485,-0.6859176543013419
300bus.pwf,16,142,42,46,5.559538452430768,-1.5719207263152248,-5.500146328048762,1.1075565530108924,0.05939212438200592,-0.46436417330433244
300bus.pwf,16,143,37,41,-1.1031327889705305,-0.0745365962783957,1.1152068056100222,0.09749307274085339,0.012074016639491703,0.022956476462457687
300bus.pwf,16,144,103,105,0.42352656401054345,-0.03173702621308913,-0.420608164582688,0.03192806451390148,0.0029183994278554337,0.00019103830081235174
300bus.pwf,16,145,127,168,-0.5307544370917601,-0.21411769768154523,0.5325594832189593,0.13447375653863683,0.001805046127199228,-0.0796439411429084
300bus.pwf,16,146,126,132,-0.009761548766323336,-0.4947694907922092,0.01218103194023661,0.1896890597277253,0.0024194831739132727,-0.3050804310644839
300bus.pwf,16,147,94,97,0.20022280356213848,-0.22745148796856088,-0.17920335076345537,0.21144693384704186,0.021019452798683114,-0.01600455412151902
300bus.pwf,16,148,177,178,1.5865150144699771,-0.11865434458293206,-1.5255459655219008,0.3061084683280269,0.06096904894807631,0.18745412374509485
300bus.pwf,16,149,34,42,-2.406775245037919,-0.34299007501125595,2.412264767503063,0.34158583179551066,0.005489522465143892,-0.0014042432157452822
300bus.pwf,16,150,71,73,-0.601673067695465,0.31281820213507877,0.6165004081609834,-0.32050746971297733,0.014827340465518368,-0.007689267577898562
300bus.pwf,16,151,249,250,-0.22535820456718697,-0.15989345513411507,0.23000000000000048,0.17388665987232116,0.004641795432813511,0.013993204738206089
300bus.pwf,16,152,19,87,2.978912929761419,-0.40129542250686523,-2.8659369428831956,0.9381606009628571,0.11297598687822363,0.5368651784559919
300bus.pwf,16,153,74,88,-0.7111963346533974,-0.5378415197177333,0.7140047001423253,0.5013692967129473,0.002808365488927933,-0.03647222300478603
300bus.pwf,16,154,178,180,-2.159544867868977,-1.0356130391206442,2.19848733394645,1.1424966785653154,0.03894246607747309,0.10688363944467127
300bus.pwf,16,155,140,146,-0.2544189128307294,-0.16214123232221675,0.2572597440265741,-0.33283022525131395,0.002840831195844662,-0.49497145757353067
300bus.pwf,16,156,2,6,1.0763429867701537,0.54294188059191,-1.075085769930723,-0.5316269290370301,0.001257216839430697,0.011314951554879826
300bus.pwf,16,157,126,169,0.5482877207317461,-0.3311326318527636,-0.5420188812628289,0.20794211822074032,0.006268839468917209,-0.12319051363202327
300bus.pwf,16,158,109,114,0.10830438780761747,-0.05255572797936253,-0.10705894687164291,0.016709332124365924,0.0012454409359745622,-0.035846395854996604
300bus.pwf,16,159,35,77,-0.48299306356272104,-0.24723464263646439,0.48571378411076543,0.25185100770480123,0.0027207205480443974,0.004616365068336847
300bus.pwf,16,160,73,76,0.27143256686642625,0.028456550737892813,-0.2699497947539321,-0.05633442033004592,0.0014827721124941462,-0.027877869592153104
300bus.pwf,16,161,76,77,-0.6905027422438916,-0.2904757800061109,0.6989923584462119,0.30897435912845844,0.00848961620232025,0.018498579122347536
300bus.pwf,16,162,99,107,-0.20184852695335026,0.18709492577223302,0.20546832372526497,-0.19741736388501147,0.0036197967719147073,-0.010322438112778443
300bus.pwf,16,163,196,210,-0.2478241513609249,-0.043502865465237975,0.24954997533258244,0.03712767366291793,0.0017258239716575474,-0.006375191802320046
300bus.pwf,16,164,62,64,2.098840503659121,0.2471057279123985,-2.035152595551838,-0.05052989251242601,0.06368790810728298,0.19657583539997248
300bus.pwf,16,165,139,172,0.2792575398559152,-0.1214918280034933,-0.27474184565690224,0.05429961578092275,0.004515694199012987,-0.06719221222257055
300bus.pwf,16,166,192,225,0.05589725136549922,-1.218625320284082,-0.05222275208893584,1.2351605670286065,0.003674499276563381,0.016535246744524557
300bus.pwf,16,167,4,16,12.291975443441373,0.6774153219412777,-12.013353181801241,0.7604020171150954,0.27862226164013215,1.437817339056373
300bus.pwf,16,168,181,187,-6.44126067001479,-2.0066007871242366,6.4568127108689355,2.1931561252016625,0.01555204085414541,0.18655533807742586
300bus.pwf,16,169,140,142,0.7990331187696261,-0.33699856975332065,-0.7903998753972875,-0.36089975895124726,0.008633243372338617,-0.6978983287045679
300bus.pwf,16,170,205,206,0.011990893913394848,-0.052816527391875756,-0.011210517006434759,0.05396900454586301,0.0007803769069600897,0.0011524771539872525
300bus.pwf,16,171,109,113,0.03298398904289362,0.0644049247705293,-0.0322893724113305,-0.09639027477126495,0.0006946166315631164,-0.03198535000073566
300bus.pwf,16,172,219,237,-0.5723019233296301,-4.005801722621821,0.5725912281878155,-2.200205212129778,0.00028930485818534635,-6.206006934751599
300bus.pwf,16,173,35,72,0.4885540651025463,-0.04503006276520652,-0.4858815142295342,0.04978355489295752,0.002672550873012103,0.004753492127751002
300bus.pwf,16,174,140,147,-0.4638588426559364,-0.1674569907056137,0.4739863117910416,-0.3608120340791462,0.010127469135105205,-0.5282690247847599
300bus.pwf,16,175,3,19,1.7613282589674517,-0.09812757593296625,-1.7375381505484482,0.1589953748178907,0.02379010841900353,0.06086779888492444
300bus.pwf,16,176,38,43,0.23377752338567903,-0.19873621605933717,-0.2311057207458499,0.16429515211716544,0.002671802639829135,-0.034441063942171724
300bus.pwf,16,177,58,59,-0.8191966938991446,0.6343122115102224,0.8277293620429647,-0.6152982886118485,0.008532668143820032,0.01901392289837389
300bus.pwf,16,178,136,137,0.9009226360029104,-0.5746962372512394,-0.8909951477794119,0.03391150536766124,0.009927488223498537,-0.5407847318835781
300bus.pwf,16,179,133,171,7.650788272067558,4.158433977922624,-7.6359999999999975,-3.4116262385108036,0.014788272067560726,0.7468077394118207
300bus.pwf,16,180,216,217,-0.14793903854929166,-1.0543180418896103,0.15246597429472683,1.0918624170467712,0.004526935745435168,0.037544375157160914
300bus.pwf,16,181,118,121,0.518914041498565,0.23293347115698035,-0.5181388156626503,-0.13021604789828986,0.0007752258359147168,0.10271742325869049
300bus.pwf,16,182,9002,9021,0.07275665629737971,-0.026405865863238558,-0.07248120837969696,0.02676625637900109,0.00027544791768274735,0.000360390515762532
300bus.pwf,16,183,54,55,-0.3246397292897293,0.14129677231439625,0.3290106390724533,-0.17827409417081003,0.004370909782724031,-0.03697732185641378
300bus.pwf,16,184,86,323,-0.14863820135315317,0.16091673456004632,0.14899999999999766,-0.2595079021178636,0.00036179864684449115,-0.0985911675578173
300bus.pwf,16,185,108,324,0.25103492167181407,-0.04292969804510584,-0.24699999999999864,0.024153608987420264,0.0040349216718154335,-0.018776089057685574
300bus.pwf,16,186,43,53,0.3150660446124983,-0.05542443304098829,-0.3138108489275665,0.042409006502543506,0.0012551956849318202,-0.013015426538444785
300bus.pwf,16,187,22,23,-0.9720832844172405,-0.06333690632641903,1.017316463589225,0.1024470924662843,0.04523317917198444,0.03911018613986528
300bus.pwf,16,188,186,188,6.577196046076895,1.8546114726553398,-6.550027946627417,-1.6577156306918581,0.027168099449477623,0.19689584196348164
300bus.pwf,16,189,3,150,-3.2455397622382756,1.3231412745678732,3.2573126230890446,-1.2407312486125044,0.011772860850769007,0.08241002595536884
300bus.pwf,16,190,86,87,-1.843352432525687,0.5559792235820081,1.8846778079682236,-0.4348867682451475,0.04132537544253667,0.12109245533686064
300bus.pwf,16,191,69,79,-0.08529411204186871,-0.076906109582253,0.08584112009318573,0.05369609384110267,0.0005470080513170217,-0.02321001574115033
300bus.pwf,16,192,9002,9012,-0.04318332310687327,0.027323132053013163,0.043353740864823506,-0.026355314804176397,0.0001704177579502364,0.0009678172488367665
300bus.pwf,16,193,128,130,-0.8828449043382888,-0.3858362298668046,0.8894764978989363,0.31651525484960935,0.006631593560647575,-0.06932097501719525
300bus.pwf,16,194,176,177,1.0557438747166654,0.20492425643193402,-1.0265150144699762,-0.15354989057933688,0.029228860246689248,0.05137436585259714
300bus.pwf,16,195,130,168,0.878579125186764,0.3137093442575177,-0.872101631321656,-0.3825641109071219,0.006477493865107986,-0.06885476664960422
300bus.pwf,16,196,98,102,0.05955069470959777,0.027962382228333284,-0.05940753773277778,-0.044782029739211894,0.0001431569768199914,-0.01681964751087861
300bus.pwf,16,197,232,233,1.0452691945981778,1.5799553121333518,-1.04,-1.429628289773566,0.005269194598177762,0.1503270223597859
300bus.pwf,16,198,73,79,-0.25526661554158675,-0.16369473766971337,0.2567598782379891,0.14849198288870552,0.0014932626964023754,-0.015202754781007854
300bus.pwf,16,199,71,72,-0.26371557063009515,0.11651809243821588,0.2667844365760664,-0.1789952282320839,0.003068865945971222,-0.06247713579386803
300bus.pwf,16,200,43,44,-0.3918521347710345,-0.1003037877123953,0.3958166644985966,0.07391905702762731,0.003964529727562116,-0.026384730684767987
300bus.pwf,16,201,248,249,0.06480162173252985,-0.020404904628230493,-0.06464179543281229,0.020862071593803346,0.00015982629971755813,0.00045716696557285275
300bus.pwf,16,202,194,219,1.2968864832023166,-0.5787628700419902,-1.2922675222347313,0.027727365826065553,0.004618960967585295,-0.5510355042159247
300bus.pwf,16,203,3,7,0.8212078566196199,0.045320177082430746,-0.8212078566196199,-0.043375344750756994,0.0,0.0019448323316737515
300bus.pwf,16,204,152,153,-0.1447100868422849,0.3658577431747351,0.14741212801965772,-0.4971322620670734,0.002702041177372827,-0.13127451889233832
300bus.pwf,16,205,138,188,-4.418474557372482,0.10830898807411427,4.425184156131056,0.23052574923385538,0.006709598758574131,0.33883473730796965
300bus.pwf,16,206,137,188,-5.21389267162613,-2.4250866934924673,5.228260899615048,2.4984389484814713,0.014368227988917681,0.073352254989004
300bus.pwf,16,207,7,131,-2.8315285743765015,1.0829560387305008,2.8403538038052494,-1.0357197016092954,0.00882522942874786,0.04723633712120545
300bus.pwf,16,208,97,100,0.31576097935169456,-0.06511834548636809,-0.3138067032697235,0.06170078674721648,0.0019542760819710736,-0.003417558739151616
300bus.pwf,16,209,138,181,-3.84852544262752,0.22218374568609417,3.8536296084659765,0.035576629155970096,0.00510416583845652,0.25776037484206427
300bus.pwf,16,210,92,105,1.298495361722799,0.08861959901973557,-1.2746773351469007,0.026055119518978237,0.023818026575898266,0.1146747185387138
300bus.pwf,16,211,92,103,0.6427056968841571,0.0601969070094511,-0.6361414590575876,-0.030698714910808084,0.006564237826569563,0.029498192098643017
300bus.pwf,16,212,104,108,0.387568605139425,-0.29864791825396153,-0.37274869029450325,0.2728889049847244,0.014819914844921733,-0.02575901326923713
300bus.pwf,16,213,155,161,-0.7739373175133888,-0.42000847786676343,0.781442705698004,0.07807491391988933,0.007505388184615214,-0.34193356394687413
300bus.pwf,16,214,226,231,-0.4452313893071896,-2.2068955408292257,0.44754357071851986,2.3049320326696363,0.002312181411330272,0.09803649184041063
300bus.pwf,16,215,130,167,1.517499596765005,0.6673924982248558,-1.4971643719230046,-0.5958149816605058,0.020335224842000343,0.07157751656434996
300bus.pwf,16,216,79,211,-0.07644158547387514,-0.05658898047364632,0.07704282792597994,0.0019635005240443357,0.0006012424521047999,-0.054625479949601985
300bus.pwf,16,217,194,664,-1.1366489972106697,0.38649976208137515,1.1399999999999988,-0.7563109987494455,0.003351002789329094,-0.36981123666807036
300bus.pwf,16,218,23,25,1.2638635364032038,0.11524643390815781,-1.2385313325003442,-0.08453054653471481,0.025332203902859618,0.030715887373442996
300bus.pwf,16,219,9001,9005,-0.2651665575143085,-0.6242745666119405,0.265533070197715,0.6258688967847335,0.0003665126834064836,0.0015943301727929793
300bus.pwf,16,220,128,133,0.3475949993780417,0.2511333053986693,-0.34711398644413827,-0.2785082957962661,0.00048101293390345745,-0.027374990397596832
300bus.pwf,16,221,206,208,-0.012046277450748454,0.031246881080231152,0.012275187873710701,-0.030845334046617538,0.0002289104229622474,0.000401547033613614
300bus.pwf,16,222,133,168,-0.3390780657030901,-0.27628775476857687,0.33954214810269284,0.24878903725127305,0.0004640823996027166,-0.027498717517303817
300bus.pwf,16,223,78,79,0.7496001144021415,0.275379454395285,-0.7461594128573003,-0.27494638007951977,0.003440701544841218,0.00043307431576522504
300bus.pwf,16,224,9002,9012,-0.04318332310687327,0.027323132053013163,0.043353740864823506,-0.026355314804176397,0.0001704177579502364,0.0009678172488367665
300bus.pwf,16,225,41,49,1.3787931433226812,0.3178309332593365,-1.2532057584631413,0.03266869193230565,0.1255873848595399,0.35049962519164213
300bus.pwf,16,226,9,11,0.48095360937014875,-0.2850658887499628,-0.479267827174777,0.2783136091363411,0.0016857821953717433,-0.006752279613621681
300bus.pwf,16,227,91,97,0.953315740613486,0.0317534084927521,-0.9367362073509211,-0.020025129051842838,0.016579533262564894,0.011728279440909262
300bus.pwf,16,228,16,42,8.651090685080973,-1.4586028948053777,-8.507228152881044,1.6757928358704288,0.14386253219992895,0.21718994106505107
300bus.pwf,16,229,46,81,3.1600440957967106,-1.1488475467905157,-3.1119488642438484,0.776729847559692,0.048095231552862217,-0.3721176992308237
300bus.pwf,16,230,9003,9006,-0.0798668292970431,0.04600117630153311,0.08064872364612226,-0.04253181022591046,0.0007818943490791597,0.0034693660756226485
300bus.pwf,16,231,45,60,-3.361196101605137,0.4283378183841615,3.435495490086954,-0.3383499469804827,0.07429938848181727,0.08998787140367881
300bus.pwf,16,232,80,211,-0.269183409961585,-0.08916199285440278,0.2706843809477579,0.03138195835226014,0.001500970986172856,-0.05778003450214264
300bus.pwf,16,233,153,161,1.1385517229099076,0.07285151200138196,-1.1314427056980056,-0.22842277683637158,0.007109017211901936,-0.15557126483498962
300bus.pwf,16,234,26,27,0.4644168980824047,0.015598476051581794,-0.4555143792801569,-0.061938988423744096,0.008902518802247794,-0.0463405123721623
300bus.pwf,16,235,20,22,-0.16133369722733787,0.15048511154504218,0.1620832844172389,-0.1652955954404839,0.0007495871899010353,-0.014810483895441706
300bus.pwf,16,236,36,88,-1.132976169132775,-0.11361088690480192,1.1376280072740665,0.09693347885280479,0.004651838141291442,-0.016677408051997133
300bus.pwf,16,237,243,244,0.5680694558909023,0.24877891051692747,-0.56323341530564,-0.23526084431402883,0.0048360405852623245,0.013518066202898638
300bus.pwf,16,238,81,195,1.0992140537422082,-0.5893066325359724,-1.095289994028654,0.013576995282008147,0.00392405971355414,-0.5757296372539642
300bus.pwf,16,239,197,211,-0.2544395767984019,0.07579081043950645,0.25537962728396246,-0.0800867649945112,0.0009400504855605618,-0.004295954555004755
300bus.pwf,16,240,77,609,0.3024854777916734,-0.009683342215549645,-0.296,0.003535443306210334,0.006485477791673411,-0.006147898909339311
300bus.pwf,16,241,215,216,1.6239337087982253,0.03532770377107336,-1.6120609614507069,0.004556572135620385,0.01187274734751842,0.039884275906693745
300bus.pwf,16,242,245,247,0.05743842982745636,-0.03176268247791672,-0.05727415786368336,0.032729605509124654,0.00016427196377299946,0.0009669230312079335
300bus.pwf,16,243,118,119,-9.02867413109682,-3.668450924556943,9.02867413109682,6.471737802238984,0.0,2.8032868776820408
300bus.pwf,16,244,234,237,0.1806452346331091,-1.4774734714527469,-0.17945190446415782,1.5315711057785322,0.0011933301689512898,0.05409763432578529
300bus.pwf,16,245,37,89,-0.5214378444532909,0.05220946378634683,0.5493400832285006,-0.017616342760572445,0.027902238775209698,0.03459312102577439
300bus.pwf,16,246,15,37,1.0421672207500752,-0.09302275439161822,-0.9758648946374694,0.2203401442394346,0.06630232611260578,0.12731738984781638
300bus.pwf,16,247,77,552,-0.10990979954881681,-0.05367776409520944,0.1110000000000005,0.02436517126465546,0.0010902004511836871,-0.02931259283055398
300bus.pwf,16,248,119,120,1.508771545811238,1.2698331908551097,-1.508771545811238,-1.159322380520031,0.0,0.1105108103350787
300bus.pwf,16,249,19,21,-1.241374779212974,0.24729260386825344,1.244494805914002,-0.25633160794145526,0.003120026701028067,-0.009039004073201823
300bus.pwf,16,250,190,231,5.323198199718379,-0.6298469691710801,-5.310610419545784,-6.747634106487045,0.012587780172594876,-7.377481075658125
300bus.pwf,16,251,136,152,-3.6245560587468986,0.38700517717115335,3.69471008684229,-0.9565118656560887,0.0701540280953914,-0.5695066884849354
300bus.pwf,16,252,193,205,-0.0045576672592727505,0.0784845743068305,0.00480064988519479,-0.07814439863054143,0.00024298262592203912,0.0003401756762890784
300bus.pwf,16,253,193,208,0.019989642413547733,-0.050162983059469486,-0.019867364654436732,0.050486509630449046,0.00012227775911100025,0.00032352657097955984
300bus.pwf,16,254,214,242,-0.04084791450884631,-0.06724965923741232,0.04085713001587046,0.06534189397623245,9.215507024151748e-6,-0.0019077652611798612
300bus.pwf,16,255,33,34,-2.4067752450379105,-0.05208207365399886,2.4067752450379105,0.4013479588632265,0.0,0.34926588520922763
300bus.pwf,16,256,120,1200,-0.9999999999999991,0.3805251809271226,0.9999999999999991,-0.3568167207109454,0.0,0.02370846021617723
300bus.pwf,16,257,89,91,-0.5733789413636957,-0.20713138754485452,0.5890798027236553,0.23069241097691698,0.015700861359959628,0.023561023432062456
300bus.pwf,16,258,129,130,-0.7390379463494642,-0.4362432118684075,0.7440715139937552,0.35545807576100247,0.0050335676442909705,-0.08078513610740501
300bus.pwf,16,259,105,107,0.7554880798406636,0.0610068640634136,-0.7495390883243234,-0.03000267742541851,0.005948991516340207,0.03100418663799509
300bus.pwf,16,260,175,176,-0.5896527929825659,0.174434451528519,0.6251956096125134,-0.07953539127862652,0.035542816629947516,0.09489906024989248
300bus.pwf,16,261,62,144,-2.9272009618978494,0.47900322270853946,2.9349264642337936,-0.4397376906586292,0.007725502335944157,0.039265532049910234
300bus.pwf,16,262,246,247,-0.019984770555159986,-0.07969350000836838,0.020178890184630344,0.0806242601720598,0.00019411962947035732,0.0009307601636914242
300bus.pwf,16,263,69,211,-0.17618733502093237,-0.11548743942353894,0.1781529193397688,0.09359810023054364,0.001965584318836422,-0.021889339192995294
300bus.pwf,16,264,137,140,5.2603821675645595,0.17679590461110495,-5.224094624167103,-0.224332467687113,0.036287543397456545,-0.047536563076008065
300bus.pwf,16,265,33,41,-0.22033916093597128,0.08923016679827775,0.22073505834344553,-0.11390368606585419,0.00039589740747425495,-0.024673519267576438
300bus.pwf,16,266,44,54,0.15564918753339752,0.039951925372309044,-0.15493043488415814,-0.07756182190422065,0.0007187526492393737,-0.0376098965319116
300bus.pwf,16,267,49,51,-1.4910112600646688,-0.0334658271304803,1.5757147014796917,0.25269116978490935,0.08470344141502295,0.21922534265442906
300bus.pwf,16,268,212,215,-0.4022654031513402,0.9481249371871133,0.4163841760553568,-0.9610540270299645,0.014118772904016641,-0.012929089842851127
300bus.pwf,16,269,9012,9121,0.038364655932641316,-0.017626963885895814,-0.03799999999998976,0.01916033960541354,0.0003646559326515586,0.0015333757195177267
300bus.pwf,16,270,47,73,0.23173942637923073,-0.16398127416309416,-0.2283264470398083,0.09578110255057883,0.0034129793394224173,-0.06820017161251533
300bus.pwf,16,271,140,145,0.14688233054303645,-0.18100598979878407,-0.14546913489069546,-0.3721969842809832,0.0014131956523409928,-0.5532029740797673
300bus.pwf,16,272,52,55,-0.9416736448466891,-0.19710203248998254,0.9672800503717345,0.23653287347510527,0.02560640552504534,0.03943084098512273
300bus.pwf,16,273,72,77,-0.4913810358827888,-0.06724813728149664,0.4954940819026641,0.07515723531608304,0.004113046019875277,0.007909098034586393
300bus.pwf,16,274,154,156,-0.248623254242476,0.15801113676280718,0.26753713592672956,-0.15771806081448256,0.018913881684253564,0.00029307594832461703
300bus.pwf,16,275,137,186,-4.809071869580639,-1.711711167105479,4.824803953923084,1.902481411460089,0.015732084342444885,0.19077024435460999
300bus.pwf,16,276,127,134,-1.0517847395592188,-0.8299831887966616,1.0596932660973781,0.6676050771154725,0.007908526538159322,-0.1623781116811891
300bus.pwf,16,277,184,185,-1.990498693220598,-0.6462825971625809,2.0000000000000027,0.5519397123232811,0.00950130677940475,-0.09434288483929976
300bus.pwf,16,278,43,48,-0.08210818909561772,-0.03924486341542456,0.08276305224912965,0.006972880153858458,0.0006548631535119309,-0.032271983261566106
300bus.pwf,16,279,244,246,0.5632334153056402,0.23420016483422484,-0.5558179226306115,-0.21324664450632275,0.007415492675028723,0.020953520327902098
300bus.pwf,16,280,130,132,1.388478470766199,0.8371039974211522,-1.3846405966397666,-0.8261090232150815,0.003837874126432439,0.010994974206070651
300bus.pwf,16,281,234,235,0.019207604706239317,2.18381531715761,-0.018287265308800465,-2.216821146523849,0.0009203393974388518,-0.03300582936623897
300bus.pwf,16,282,133,137,-6.924153539136039,-4.03631920193434,7.0286919577334075,4.441628105859955,0.10453841859736812,0.405308903925615
300bus.pwf,16,283,40,48,0.0018570460134387998,-0.11077665946524021,-0.0016126351791465252,0.08882661184019727,0.0002444108342922746,-0.021950047625042934
300bus.pwf,16,284,142,143,-1.3116756062629877,-1.059129251373103,1.323270793856553,0.28899317909094674,0.01159518759356537,-0.7701360722821562
300bus.pwf,16,285,240,281,-0.33094757745748965,-0.3039860867641946,0.3310000000000028,0.29448348612735886,5.2422542513141934e-5,-0.009502600636835723
300bus.pwf,16,286,59,61,-3.0077293620429595,-0.4122102407514563,3.0241989244773775,0.5023072279482437,0.016469562434417995,0.09009698719678738
300bus.pwf,16,287,110,112,0.16269154931635474,-0.07922640289243016,-0.15899976318622974,0.033775355173995714,0.0036917861301249966,-0.045451047718434445
300bus.pwf,16,288,145,149,-0.5123237120562277,-0.5618073856014703,0.52196151630766,0.37743110322425144,0.009637804251432236,-0.18437628237721881
300bus.pwf,16,289,243,245,0.1919305441090963,0.15349692445428562,-0.18998101989344854,-0.14270875977628392,0.0019495242156477577,0.0107881646780017
300bus.pwf,16,290,99,110,0.5114190991638947,-0.007457399370883133,-0.5001901319312279,0.02141185665266182,0.011228967232666864,0.013954457281778687
300bus.pwf,16,291,141,146,-0.1501417387589501,-0.138388170369689,0.15080208288012886,-0.23369239301332098,0.0006603441211787686,-0.37208056338301
300bus.pwf,16,292,5,9,1.452391000746109,0.17598328025645787,-1.440953609370149,-0.14070948093853747,0.011437391375960004,0.03527379931792041
300bus.pwf,16,293,189,209,-0.04077690332415823,-0.0366483358290954,0.04089533731945888,0.036825986822049926,0.00011843399530064858,0.00017765099295452558
300bus.pwf,16,294,9003,9006,-0.0798668292970431,0.04600117630153311,0.08064872364612226,-0.04253181022591046,0.0007818943490791597,0.0034693660756226485
300bus.pwf,16,295,221,223,3.2475139913396136,1.768080693306382,-3.243090642699113,-2.820895817678655,0.004423348640500535,-1.0528151243722732
300bus.pwf,16,296,191,225,6.542823710996021,2.791863377457495,-6.492046377589699,0.30555396032813426,0.05077733340632129,3.097417337785629
300bus.pwf,16,297,8,11,-0.39910285189623246,-0.03452758664197059,0.4009974557044009,0.006858330453716477,0.0018946038081684158,-0.02766925618825411
300bus.pwf,16,298,228,229,-2.2284164576759884,-1.0874897569547541,2.2369449047910996,-0.3363389079408123,0.008528447115111248,-1.4238286648955665
300bus.pwf,16,299,44,47,1.0734374618887998,-0.1592662343646662,-1.0442634327077953,0.2082653711933748,0.029174029181004535,0.0489991368287086
300bus.pwf,16,300,100,102,0.2671542147602589,-0.0030571282781644837,-0.26616742056801346,0.0007886077245616574,0.0009867941922454548,-0.0022685205536028263
300bus.pwf,16,301,97,103,0.10809936288869738,-0.08383725520341365,-0.10738510495295185,0.06812568165456298,0.0007142579357455325,-0.015711573548850666
300bus.pwf,16,302,231,237,-4.558122533616211,-4.225288828559417,4.560234239579086,-0.024206179932787175,0.002111705962875021,-4.249495008492204
300bus.pwf,16,303,198,211,0.44626189324127663,0.1999956913992198,-0.439313906360454,-0.21523324435899993,0.006947986880822654,-0.015237552959780132
300bus.pwf,16,304,247,248,0.39862990524152686,-0.3663926304693183,-0.3854731417232188,0.4037418540084405,0.013156763518308079,0.03734922353912218
300bus.pwf,16,305,148,178,0.8353469864701253,0.819757591603868,-0.7727178187806942,-0.7144726373688346,0.06262916768943105,0.10528495423503337
300bus.pwf,16,306,109,110,-0.12266184518373523,0.03512593910167841,0.12374088860071396,-0.05578527599694941,0.001079043416978731,-0.020659336895270997
300bus.pwf,16,307,7071,71,1.1600000000000001,0.8700000099493792,-1.1600000000000001,-0.749632405393962,0.0,0.12036760455541717
300bus.pwf,16,308,7023,23,1.8500000000000019,-9.551605728574941e-9,-1.8500000000000019,0.06513644080132508,0.0,0.06513643124971935
300bus.pwf,16,309,223,224,-1.0369093573008894,0.5015509068808959,1.038400036572237,-0.09460822660599381,0.0014906792713476058,0.40694268027490205
300bus.pwf,16,310,143,148,1.8974477978966866,1.3524358050486707,-1.8920443373261842,-1.1982293533827924,0.00540346057050245,0.15420645166587832
300bus.pwf,16,311,142,175,1.537075481660277,1.1782678157211977,-1.5288942245772335,-0.9228913816763709,0.008181257083043514,0.2553764340448268
300bus.pwf,16,312,163,137,2.2666105160979093,-0.21916305083954218,-2.260649664960544,0.46070896899714403,0.005960851137365442,0.24154591815760185
300bus.pwf,16,313,45,46,-2.340102232252059,0.018584817381309904,2.340102232252059,0.08612991497786737,0.0,0.10471473235917728
300bus.pwf,16,314,145,180,2.8991451485209723,1.8422641600837375,-2.8934873339464477,-1.6363197095710342,0.005657814574524522,0.20594445051270327
300bus.pwf,16,315,9003,9032,0.014027979979992531,-0.002009057855595479,-0.013899999999999985,0.0028211483363452675,0.00012797997999254573,0.0008120904807497886
300bus.pwf,16,316,7011,11,2.3399999999999985,1.0000000098696091,-2.3399999999999985,-0.8911524846586687,0.0,0.10884752521094043
300bus.pwf,16,317,81,88,1.8516327074163914,0.6450430118906496,-1.8516327074163914,-0.5781758736185054,0.0,0.06686713827214419
300bus.pwf,16,318,7130,130,12.919999999999996,4.164270029070153,-12.919999999999996,-1.225126603469704,0.0,2.9391434256004487
300bus.pwf,16,319,3,4,12.291975443441371,1.3533875494511278,-12.291975443441371,-0.662481417936192,0.0,0.6909061315149359
300bus.pwf,16,320,7024,24,4.100000000000005,1.5149393229718626,-4.100000000000005,-1.0517151386542878,0.0,0.46322418431757484
300bus.pwf,16,321,7002,2,6.229999999999999,1.6760489780816032,-6.1956016203763715,-1.1738326355766378,0.03439837962362713,0.5022163425049655
300bus.pwf,16,322,7,5,0.9279009132474415,0.4795867257622781,-0.9279009132474415,-0.44293012142791355,0.0,0.03665660433436457
300bus.pwf,16,323,86,102,0.674653467582454,-0.36771867118253354,-0.674653467582454,0.3931950890226119,0.0,0.02547641784007837
300bus.pwf,16,324,201,69,-0.2614814470628012,-0.1873615513681539,0.2614814470628012,0.1972067830468518,0.0,0.009845231678697886
300bus.pwf,16,325,10,11,-0.09432561326186913,-0.44225638423638003,0.09432561326186913,0.45997090738537594,0.0,0.01771452314899591
300bus.pwf,16,326,9004,9042,0.00816109412494591,-0.00172889879013401,-0.008100000000000005,0.0020434300086793096,6.109412494590544e-5,0.00031453121854529953
300bus.pwf,16,327,132,170,1.372459564699527,0.639948094870364,-1.3701061123575204,-0.5453393107217059,0.002353452342006568,0.09460878414865803
300bus.pwf,16,328,9005,9054,-0.5,-0.32192959756379835,0.5,0.3800000099943892,0.0,0.058070412430590856
300bus.pwf,16,329,7044,44,0.36999999999999994,0.4200000099872412,-0.36999999999999994,-0.37362793292766305,0.0,0.04637207705957813
300bus.pwf,16,330,9003,9031,0.0186149189966844,-0.0024589422542068513,-0.018399999999999996,0.0038227159971049958,0.00021491899668440312,0.0013637737428981445
300bus.pwf,16,331,7057,57,1.6499999999999995,0.9000000099894834,-1.6499999999999995,-0.7503211103970884,0.0,0.149678899592395
300bus.pwf,16,332,16,15,3.3622624967202617,0.7335273455525823,-3.3516188527123845,-0.32906887325324663,0.010643644007877207,0.4044584722993356
300bus.pwf,16,333,211,212,-1.3102736022773254,0.1872452849179128,1.3149061616428224,-0.168406210164895,0.004632559365497002,0.018839074753017826
300bus.pwf,16,334,9005,9053,0.012367612790168278,-0.16328003633056043,-0.011900000000000008,0.17438540225736543,0.0004676127901682703,0.011105365926805
300bus.pwf,16,335,9003,9037,0.018714129994254685,-0.0028191367195733647,-0.018600000000000002,0.003581545244456938,0.00011412999425468306,0.0007624085248835732
300bus.pwf,16,336,130,131,2.8403538038052614,-0.8831250282234748,-2.8403538038052614,1.0424839595044872,0.0,0.15935893128101242
300bus.pwf,16,337,116,124,2.8044443329819857,0.3979533908872316,-2.7581188649130053,-0.2429412477333205,0.04632546806898041,0.1550121431539111
300bus.pwf,16,338,9003,9034,0.015526414769118178,-0.002062046904914052,-0.015499999999999976,0.002344595165695609,2.6414769118202064e-5,0.0002825482607815566
300bus.pwf,16,339,209,198,-0.42089533731945916,-0.16814536100072472,0.4257123955501477,0.20723764125746533,0.0048170582306885645,0.03909228025674061
300bus.pwf,16,340,7012,12,3.7200000000000046,2.24000002230499,-3.7200000000000046,-1.7444728165483667,0.0,0.49552720575662335
300bus.pwf,16,341,121,115,1.9267660963346442,1.1564835126570756,-1.9267660963346442,-1.0150868217743891,0.0,0.14139669088268647
300bus.pwf,16,342,7,6,0.12491423006928026,-0.12599172101019462,-0.12491423006928026,0.12707401825448983,0.0,0.001082297244295205
300bus.pwf,16,343,73,74,-2.6443399124460125,-0.33217782981711963,2.6443399124460125,0.4939192955544769,0.0,0.16174146573735726
300bus.pwf,16,344,241,237,5.7479999999999976,0.4928685371234191,-5.7342469327562675,-0.0692740660165238,0.013753067243730044,0.4235944711068953
300bus.pwf,16,345,164,155,2.2498308084563563,0.7231802906679017,-2.244767373166675,-0.5615980774733311,0.0050634352896814505,0.16158221319457056
300bus.pwf,16,346,45,44,3.204903313920791,0.016174769733943606,-3.204903313920791,0.1738820356133104,0.0,0.190056805347254
300bus.pwf,16,347,238,239,-5.4842804678267685,-0.3585479623603508,5.499999999999995,0.8615729919036031,0.01571953217322619,0.5030250295432523
300bus.pwf,16,348,9003,9038,0.026052032129810953,-0.0033612515014551808,-0.0258,0.0050560133389962614,0.0002520321298109529,0.0016947618375410807
300bus.pwf,16,349,9021,9022,0.015412110181666508,-0.007522238057916521,-0.015299999999992722,0.008233654033590611,0.00011211018167378572,0.0007114159756740901
300bus.pwf,16,350,218,219,-0.8424998622267167,-0.8567647421532549,0.8437798247883278,0.913995331495356,0.0012799625616111143,0.05723058934210101
300bus.pwf,16,351,229,230,-3.4391955270520014,0.34500004781033455,3.4499999999999997,0.013708454063223283,0.010804472947998356,0.35870850187355785
300bus.pwf,16,352,9007,9072,0.010229500821814105,-0.003250562150838001,-0.010199999999999987,0.0034476366847158513,2.9500821814118505e-5,0.00019707453387785012
300bus.pwf,16,353,36,35,1.1329761691327749,0.13066494415113183,-1.1329761691327749,-0.07451776342492167,0.0,0.056147180726210166
300bus.pwf,16,354,234,236,-5.978856366787844,-2.3234037659537345,5.999999999999999,3.0000000287426967,0.021143633212155066,0.6765962627889621
300bus.pwf,16,355,7001,1,4.670000000000001,1.8472107339689927,-4.670000000000001,-1.4401298836039444,0.0,0.40708085036504826
300bus.pwf,16,356,7003,3,12.099999999999993,4.200000041949124,-12.099999999999993,-2.650134509228721,0.0,1.5498655327204034
300bus.pwf,16,357,130,150,3.2573126230890637,-1.0832506467543936,-3.2573126230890637,1.248327187345481,0.0,0.16507654059108745
300bus.pwf,16,358,151,170,1.4004009334510306,0.7002716177157405,-1.3978938876424774,-0.6019954220204492,0.00250704580855321,0.09827619569529134
300bus.pwf,16,359,9007,9071,0.010241044460158468,-0.002643807878561767,-0.010200000000000018,0.0029198067552573715,4.1044460158450036e-5,0.0002759988766956045
300bus.pwf,16,360,153,183,0.8740361490704346,0.04204641677824124,-0.8717146817540921,0.012894976375198694,0.0023214673163425292,0.05494139315343993
300bus.pwf,16,361,213,214,2.720000000000001,-0.17798477842481883,-2.7009544944690482,0.46747646249529906,0.019045505530952855,0.2894916840704802
300bus.pwf,16,362,9003,9035,0.016729099199392403,-0.002519695689218049,-0.016600000000000004,0.003338875177029899,0.000129099199392399,0.0008191794878118497
300bus.pwf,16,363,200,248,-0.030671519990689743,0.06122780062320121,0.030671519990689743,-0.06023612761207264,0.0,0.0009916730111285688
300bus.pwf,16,364,7049,49,-4.423847018262696,0.0,4.423847018262696,0.2995965971122416,0.0,0.2995965971122416
300bus.pwf,16,365,143,144,2.934926464233796,0.18135244138494677,-2.934926464233796,0.46427618451894226,0.0,0.645628625903889
300bus.pwf,16,366,9005,9052,0.30163537215210573,0.16605819175637893,-0.3,-0.1272092941050268,0.0016353721521057407,0.03884889765135213
300bus.pwf,16,367,159,117,-9.042794909977745,1.532202099291844,9.042794909977745,-0.12109473231102186,0.0,1.411107366980822
300bus.pwf,16,368,182,139,-0.770286252934153,-0.9801274981443245,0.7707424601440924,1.0000485463116862,0.00045620720993944097,0.01992104816736162
300bus.pwf,16,369,189,210,-0.09179035351264539,-0.02625736420677427,0.09179035351264539,0.02834463160210987,0.0,0.0020872673953356013
300bus.pwf,16,370,122,157,-1.281009489206433,1.0462533212584058,1.2824433353585618,-0.990333321325381,0.001433846152128826,0.05591999993302477
300bus.pwf,16,371,3,1,0.30004591835661654,0.1728790056668963,-0.30004591835661654,-0.16751968466477152,0.0,0.005359321002124773
300bus.pwf,16,372,7017,17,3.299999999999995,3.500000034987494,-3.299999999999995,-3.192169181590941,0.0,0.3078308533965526
300bus.pwf,16,373,9004,9043,0.016034060085388407,-0.002277100686407495,-0.016000000000000028,0.0026464798128213772,3.4060085388379346e-5,0.0003693791264138824
300bus.pwf,16,374,63,64,-2.0351525955518386,0.07700618627015388,2.0351525955518386,0.07434324607484655,0.0,0.15134943234500042
300bus.pwf,16,375,141,174,0.9864695114319296,0.27866692898258183,-0.9843091148502311,-0.22438696486740728,0.0021603965816985315,0.05427996411517455
300bus.pwf,16,376,7061,61,3.9999999999999987,1.500000014983641,-3.9999999999999987,-1.1395867121799128,0.0,0.3604133028037282
300bus.pwf,16,377,7139,139,7.000000000000001,2.538701752612411,-7.000000000000001,-1.711443868489333,0.0,0.8272578841230782
300bus.pwf,16,378,160,124,-0.9218152427745652,0.6419958196341626,0.923484830616585,-0.586899420847496,0.0016695878420198706,0.05509639878666661
300bus.pwf,16,379,9001,9006,0.2545110017476988,-0.1504994760388543,-0.25247445410430724,0.18697363518548452,0.002036547643391562,0.036474159146630214
300bus.pwf,16,380,9053,9533,0.011899999999999968,-0.046085392264106906,-0.011899999999999968,0.047576157149074705,0.0,0.001490764884967799
300bus.pwf,16,381,155,156,1.0187046906800583,0.4802813679934741,-1.017537135926728,-0.4429196158869044,0.0011675547533303021,0.03736175210656967
300bus.pwf,16,382,202,211,-0.26701043339675906,-0.12400909231343071,0.26701043339675906,0.1340812592742111,0.0,0.010072166960780393
300bus.pwf,16,383,9003,9033,0.019133363545301547,-0.002474450685602575,-0.018899999999999993,0.003955267055566658,0.00023336354530155423,0.001480816369964083
300bus.pwf,16,384,7055,55,0.4499999999999997,0.2500000099935402,-0.4499999999999997,-0.20460290232851008,0.0,0.045397107665030134
300bus.pwf,16,385,9005,9055,-0.08000000000000004,-0.05212095422945073,0.08000000000000004,0.060000009994222836,0.0,0.007879055764772103
300bus.pwf,16,386,15,17,2.4196360108946355,-0.8561580970694012,-2.309999999999999,1.0319147949468972,0.10963601089463637,0.17575669787749604
300bus.pwf,16,387,9002,9024,0.013609989916570149,-0.008240388276856362,-0.013499999999925634,0.008938326184909199,0.00010998991664451507,0.000697937908052837
300bus.pwf,16,388,9004,9041,0.01013246634367915,-0.002080709940188442,-0.010100000000000001,0.0022984882219276867,3.246634367914947e-5,0.00021777828173924485
300bus.pwf,16,389,9023,9025,0.00452004518306825,-0.0038964686239537395,-0.004499999999997896,0.004015017991200385,2.00451830703538e-5,0.00011854936724664533
300bus.pwf,16,390,193,196,-0.015431975154276174,-0.02905937536766423,0.015431975154276174,0.029297179879412383,0.0,0.00023780451174815198
300bus.pwf,16,391,7166,166,5.53000000000001,1.305310411452183,-5.53000000000001,-0.7743168668962923,0.0,0.5309935445558907
300bus.pwf,16,392,7062,62,3.9999999999999996,1.5000000149804862,-3.9999999999999996,-1.019501449851596,0.0,0.4804985651288902
300bus.pwf,16,393,7039,39,4.999999999999999,2.000000019991141,-4.999999999999999,-1.2436008777440293,0.0,0.7563991422471119
300bus.pwf,16,394,196,2040,0.9051870931408867,0.2064471301772628,-0.9051082118515161,-0.19067087230349755,7.888128937061367e-5,0.015776257873765243
300bus.pwf,16,395,227,231,-2.35,-1.5096843317740645,2.356826805696333,2.089455191344129,0.006826805696332983,0.5797708595700646
300bus.pwf,16,396,195,212,0.9136485696551079,0.8211833791940746,-0.9126407584914776,-0.7750760184579872,0.0010078111636302456,0.046107360736087344
300bus.pwf,16,397,9001,9012,0.1258923501886072,-0.08736106766907414,-0.12507213766228079,0.10204929960437537,0.0008202125263264137,0.014688231935301221
300bus.pwf,16,398,222,237,-0.7799999999999998,-0.33684607636092706,0.7808733694535099,0.7634598405370945,0.0008733694535101311,0.4266137641761674
300bus.pwf,16,399,85,99,1.3043230648462876,-0.29432204525189576,-1.3043230648462876,0.3700760943793604,0.0,0.07575404912746464
300bus.pwf,16,400,9023,9026,0.004519589374941905,-0.004188214646392298,-0.004499999999997725,0.004304065306130979,1.9589374944180282e-5,0.00011585065973868103
300bus.pwf,16,401,9003,9036,0.030419158816478727,-0.0027795970197554386,-0.030299999999999987,0.004071835993483316,0.00011915881647873994,0.0012922389737278772
300bus.pwf,16,402,3,2,-0.0290177151467774,-0.13677521792429914,0.0290177151467774,0.13766562488525835,0.0,0.0008904069609592113
300bus.pwf,16,403,204,2040,-0.8894219622628489,-0.017409561365721152,0.9051082118515168,0.1904249603910978,0.015686249588667933,0.17301539902537666
300bus.pwf,16,404,37,9001,0.11529204846838953,-0.9542609854341896,-0.11523679442204499,0.9546845997887209,5.5254046344543895e-5,0.0004236143545313098
300bus.pwf,16,405,114,207,-0.11197085325955403,-0.03182759695501147,0.11197085325955403,0.033509742248645225,0.0,0.0016821452936337522
300bus.pwf,16,406,12,10,1.3856743867381294,-0.2214901777162801,-1.3856743867381294,0.3167538062067514,0.0,0.09526362849047132
300bus.pwf,16,407,9005,9051,0.0004639448600095167,-0.16247882049964543,1.240327285323417e-16,0.17350000999414547,0.00046394486000964075,0.011021189494500039
300bus.pwf,16,408,24,23,0.6411799999924293,0.3811608475861057,-0.6411799999924293,-0.3528314938156747,0.0,0.028329353770431
300bus.pwf,16,409,87,94,0.98125913491497,-0.49916552544911497,-0.98125913491497,0.5531239801947798,0.0,0.05395845474566485
300bus.pwf,16,410,21,20,5.133614537512922,1.6933751164733621,-5.133614537512922,-1.3330692796132553,0.0,0.36030583686010687
300bus.pwf,16,411,62,61,1.2941989244773848,0.5279050764880537,-1.2941989244773848,-0.431766665495914,0.0,0.09613841099213971
